Info: SIMULATION PARAMETERS:
Info: TIMESTEP               2
Info: NUMBER OF STEPS        0
Info: STEPS PER CYCLE        10
Info: FIRST LDB TIMESTEP     50
Info: LAST LDB TIMESTEP     -1
Info: HOM BACKGROUND SCALING 1
Info: MIN ATOMS PER PATCH    40
Info: INITIAL TEMPERATURE    298
Info: CENTER OF MASS MOVING INITIALLY? NO
Info: DIELECTRIC             1
Info: EXCLUDE                SCALED ONE-FOUR
Info: 1-4 ELECTROSTATICS SCALED BY 1
Info: MODIFIED 1-4 VDW PARAMETERS WILL BE USED
Info: DCD FILENAME           dimer_smd.dcd
Info: DCD FREQUENCY          500
Info: DCD FIRST STEP         500
Info: XST FILENAME           dimer_smd.xst
Info: XST FREQUENCY          500
Info: NO VELOCITY DCD OUTPUT
Info: NO FORCE DCD OUTPUT
Info: OUTPUT FILENAME        dimer_smd
Info: BINARY OUTPUT FILES WILL BE USED
Info: RESTART FILENAME       dimer_smd.restart
Info: RESTART FREQUENCY      500
Info: BINARY RESTART FILES WILL BE USED
Info: SWITCHING ACTIVE
Info: SWITCHING ON           10
Info: SWITCHING OFF          12
Info: PAIRLIST DISTANCE      14
Info: PAIRLIST SHRINK RATE   0.01
Info: PAIRLIST GROW RATE     0.01
Info: PAIRLIST TRIGGER       0.3
Info: PAIRLISTS PER CYCLE    2
Info: PAIRLISTS ENABLED
Info: MARGIN                 0
Info: HYDROGEN GROUP CUTOFF  2.5
Info: PATCH DIMENSION        16.5
Info: ENERGY OUTPUT STEPS    100
Info: CROSSTERM ENERGY INCLUDED IN DIHEDRAL
Info: TIMING OUTPUT STEPS    1000
Info: PRESSURE OUTPUT STEPS  100
Info: FIXED ATOMS ACTIVE
Info: SMD ACTIVE
Info: SMD VELOCITY    0.005 ANGSTROM/TIMESTEP
Info: SMD DIRECTION   0.00865515 -0.714534 -0.699547
Info: SMD K   7
Info: SMD K2  0
Info: SMD OUTPUT FREQUENCY   10 TIMESTEPS
Info: SMD FILE P:/Documents/MD/SMD/dimer_smd.ref
Info: USING VERLET I (r-RESPA) MTS SCHEME.
Info: C1 SPLITTING OF LONG RANGE ELECTROSTATICS
Info: PLACING ATOMS IN PATCHES BY HYDROGEN GROUPS
Info: RIGID BONDS TO HYDROGEN : ALL
Info:         ERROR TOLERANCE : 1e-08
Info:          MAX ITERATIONS : 100
Info: RIGID WATER USING SETTLE ALGORITHM
Info: RANDOM NUMBER SEED     1597310277
Info: USE HYDROGEN BONDS?    NO
Info: COORDINATE PDB         P:/Documents/MD/SMD/dimer_eq.pdb
Info: STRUCTURE FILE         P:/Documents/MD/SMD/dimerpsf.psf
Info: PARAMETER file: CHARMM format!
Info: PARAMETERS             P:/Documents/MD/par_all36_prot.prm
Info: USING ARITHMETIC MEAN TO COMBINE L-J SIGMA PARAMETERS
Info: SUMMARY OF PARAMETERS:
Info: 132 BONDS
Info: 362 ANGLES
Info: 702 DIHEDRAL
Info: 35 IMPROPER
Info: 6 CROSSTERM
Info: 53 VDW
Info: 0 VDW_PAIRS
Info: 0 NBTHOLE_PAIRS
Info:
Info: STRUCTURE SUMMARY:
Info: 3549 ATOMS
Info: 3566 BONDS
Info: 6460 ANGLES
Info: 9441 DIHEDRALS
Info: 654 IMPROPERS
Info: 211 CROSSTERMS
Info: 0 EXCLUSIONS
Info: 2 FIXED ATOMS
Info: 1782 RIGID BONDS
Info: 0 RIGID BONDS BETWEEN FIXED ATOMS
Info: 8859 DEGREES OF FREEDOM
Info: 1767 HYDROGEN GROUPS
Info: 4 ATOMS IN LARGEST HYDROGEN GROUP
Info: 1767 MIGRATION GROUPS
Info: 4 ATOMS IN LARGEST MIGRATION GROUP
Info: 0 HYDROGEN GROUPS WITH ALL ATOMS FIXED
Info: TOTAL MASS = 25082.2 amu
Info: TOTAL CHARGE = -12 e
Info:
Info: ADDED 19396 IMPLICIT EXCLUSIONS
Info: NONBONDED TABLE R-SQUARED SPACING: 0.0625
Info: NONBONDED TABLE SIZE: 769 POINTS
Info: ORIGINAL ATOMS MINMAX IS -61.603 -43.307 196.695  -28.342 80.26 320.378
Info: ADJUSTED ATOMS MINMAX IS -52.4582 -32.1849 205.244  -33.3057 77.7239 313.863
Info: REMOVING COM VELOCITY 0.0253774 0.00244034 0.167298
Info: 2 SMD ATOMS
TCL: Running for 20000 steps
ETITLE: TS BOND ANGLE DIHED IMPRP ELECT VDW BOUNDARY MISC KINETIC TOTAL TEMP POTENTIAL TOTAL3 TEMPAVG
ENERGY: 0 676.8705 1876.8245 2126.0419 118.4492 -5052.9400 -688.7357 0.0000 0.0000 2650.3116 1706.8220 301.0944 -943.4897 1735.5967 301.0944
ENERGY: 4000 928.3116 2591.5887 2490.5862 210.9648 -7786.3932 -296.2221 0.0000 0.0000 3687.4784 1826.3143 418.9239 -1861.1641 1869.0600 416.5004
ENERGY: 8000 988.6580 2747.2179 2509.2411 170.8498 -8075.6534 -207.3326 0.0000 0.0000 3837.2481 1970.2288 435.9388 -1867.0193 2018.1585 431.9079
ENERGY: 12000 973.2171 2837.0054 2493.8782 205.2778 -8029.9562 -176.5635 0.0000 0.0000 3864.1296 2166.9883 438.9928 -1697.1413 2212.8880 434.6141
ENERGY: 16000 949.8706 2886.6371 2562.8958 207.9523 -7964.3321 -131.3241 0.0000 0.0000 3914.4704 2426.1701 444.7118 -1488.3003 2473.0573 445.5022
ENERGY: 20000 1069.2475 2950.3720 2590.4931 210.3067 -7970.5016 -108.2537 0.0000 0.0000 4030.5736 2772.2375 457.9020 -1258.3361 2818.3699 459.9991
