Info: SIMULATION PARAMETERS:
Info: TIMESTEP               2
Info: NUMBER OF STEPS        0
Info: STEPS PER CYCLE        10
Info: PERIODIC CELL BASIS 1  33.4669 0 0
Info: PERIODIC CELL BASIS 2  0 120.144 0
Info: PERIODIC CELL BASIS 3  0 0 120.281
Info: PERIODIC CELL CENTER   -45.319 19.474 257.743
Info: FIRST LDB TIMESTEP     50
Info: LAST LDB TIMESTEP     -1
Info: HOM BACKGROUND SCALING 1
Info: PME BACKGROUND SCALING 1
Info: MIN ATOMS PER PATCH    40
Info: VELOCITY FILE          dimer_2.restart.vel
Info: CENTER OF MASS MOVING INITIALLY? NO
Info: DIELECTRIC             1
Info: EXCLUDE                SCALED ONE-FOUR
Info: 1-4 ELECTROSTATICS SCALED BY 1
Info: MODIFIED 1-4 VDW PARAMETERS WILL BE USED
Info: DCD FILENAME           dimer_3.dcd
Info: DCD FREQUENCY          500
Info: DCD FIRST STEP         500
Info: DCD FILE WILL CONTAIN UNIT CELL DATA
Info: XST FILENAME           dimer_3.xst
Info: XST FREQUENCY          500
Info: NO VELOCITY DCD OUTPUT
Info: NO FORCE DCD OUTPUT
Info: OUTPUT FILENAME        dimer_3
Info: BINARY OUTPUT FILES WILL BE USED
Info: RESTART FILENAME       dimer_3.restart
Info: RESTART FREQUENCY      500
Info: BINARY RESTART FILES WILL BE USED
Info: SWITCHING ACTIVE
Info: SWITCHING ON           10
Info: SWITCHING OFF          12
Info: PAIRLIST DISTANCE      14
Info: PAIRLIST SHRINK RATE   0.01
Info: PAIRLIST GROW RATE     0.01
Info: PAIRLIST TRIGGER       0.3
Info: PAIRLISTS PER CYCLE    2
Info: PAIRLISTS ENABLED
Info: MARGIN                 0.495
Info: HYDROGEN GROUP CUTOFF  2.5
Info: PATCH DIMENSION        16.995
Info: ENERGY OUTPUT STEPS    100
Info: CROSSTERM ENERGY INCLUDED IN DIHEDRAL
Info: TIMING OUTPUT STEPS    1000
Info: PRESSURE OUTPUT STEPS  100
Info: LANGEVIN DYNAMICS ACTIVE
Info: LANGEVIN TEMPERATURE   298
Info: LANGEVIN USING BBK INTEGRATOR
Info: LANGEVIN DAMPING COEFFICIENT IS 1 INVERSE PS
Info: LANGEVIN DYNAMICS NOT APPLIED TO HYDROGENS
Info: LANGEVIN PISTON PRESSURE CONTROL ACTIVE
Info:        TARGET PRESSURE IS 1.01325 BAR
Info:     OSCILLATION PERIOD IS 100 FS
Info:             DECAY TIME IS 50 FS
Info:     PISTON TEMPERATURE IS 298 K
Info:       PRESSURE CONTROL IS GROUP-BASED
Info:    INITIAL STRAIN RATE IS 4.69095e-05 4.69095e-05 4.69095e-05
Info:       CELL FLUCTUATION IS ISOTROPIC
Info: PARTICLE MESH EWALD (PME) ACTIVE
Info: PME TOLERANCE               1e-06
Info: PME EWALD COEFFICIENT       0.257952
Info: PME INTERPOLATION ORDER     4
Info: PME GRID DIMENSIONS         36 128 128
Info: PME MAXIMUM GRID SPACING    1
Info: FULL ELECTROSTATIC EVALUATION FREQUENCY      2
Info: USING VERLET I (r-RESPA) MTS SCHEME.
Info: C1 SPLITTING OF LONG RANGE ELECTROSTATICS
Info: PLACING ATOMS IN PATCHES BY HYDROGEN GROUPS
Info: RIGID BONDS TO HYDROGEN : ALL
Info:         ERROR TOLERANCE : 1e-08
Info:          MAX ITERATIONS : 100
Info: RIGID WATER USING SETTLE ALGORITHM
Info: RANDOM NUMBER SEED     1598408649
Info: USE HYDROGEN BONDS?    NO
Info: COORDINATE PDB         P:/Documents/MD/eq/dimer_solvate.pdb
Info: STRUCTURE FILE         P:/Documents/MD/eq/dimer_solvate.psf
Info: PARAMETER file: CHARMM format!
Info: PARAMETERS             P:/Documents/MD/par_all27_prot_lipid_na.inp
Info: PARAMETERS             P:/Documents/MD/par_all36_prot.prm
Info: PARAMETERS             P:/Documents/MD/par_all36_carb.prm
Info: PARAMETERS             P:/Documents/MD/par_all36_na.prm
Info: PARAMETERS             P:/Documents/MD/par_all36_cgenff.prm
Info: PARAMETERS             P:/Documents/MD/toppar_water_ions_namd.str
Info: PARAMETERS             P:/Documents/MD/toppar_all36_carb_glycopeptide.str
Info: USING ARITHMETIC MEAN TO COMBINE L-J SIGMA PARAMETERS
Info: BINARY COORDINATES     dimer_2.restart.coor
Info: SKIPPING rtf SECTION IN STREAM FILE
Info: SKIPPING rtf SECTION IN STREAM FILE
Info: SUMMARY OF PARAMETERS:
Info: 1174 BONDS
Info: 3322 ANGLES
Info: 7650 DIHEDRAL
Info: 270 IMPROPER
Info: 12 CROSSTERM
Info: 511 VDW
Info: 6 VDW_PAIRS
Info: 0 NBTHOLE_PAIRS
Info:
Info: STRUCTURE SUMMARY:
Info: 49401 ATOMS
Info: 34134 BONDS
Info: 21744 ANGLES
Info: 9441 DIHEDRALS
Info: 654 IMPROPERS
Info: 211 CROSSTERMS
Info: 0 EXCLUSIONS
Info: 47634 RIGID BONDS
Info: 100569 DEGREES OF FREEDOM
Info: 17051 HYDROGEN GROUPS
Info: 4 ATOMS IN LARGEST HYDROGEN GROUP
Info: 17051 MIGRATION GROUPS
Info: 4 ATOMS IN LARGEST MIGRATION GROUP
Info: TOTAL MASS = 300430 amu
Info: TOTAL CHARGE = -12 e
Info: MASS DENSITY = 1.03154 g/cm^3
Info: ATOM DENSITY = 0.102146 atoms/A^3
Info:
Info: ADDED 65248 IMPLICIT EXCLUSIONS
Info: NONBONDED TABLE R-SQUARED SPACING: 0.0625
Info: NONBONDED TABLE SIZE: 769 POINTS
Info: REMOVING COM VELOCITY 0.00606435 -0.0241764 -0.0265897
TCL: Minimizing for 2000 steps
ETITLE: TS BOND ANGLE DIHED IMPRP ELECT VDW BOUNDARY MISC KINETIC TOTAL TEMP POTENTIAL TOTAL3 TEMPAVG PRESSURE GPRESSURE VOLUME PRESSAVG GPRESSAVG
ENERGY: 0 226.3739 680.8671 1879.9093 32.8542 -176511.5759 14674.9753 0.0000 0.0000 0.0000 -159016.5960 0.0000 -159016.5960 -159016.5960 0.0000 18576.8872 -21779.0296 483632.6446 18576.8872 -21779.0296
ENERGY: 400 223.3353 635.8968 1866.4948 32.1816 -212535.5489 18702.8405 0.0000 0.0000 0.0000 -191074.8000 0.0000 -191074.8000 -191074.8000 0.0000 20111.7130 -5263.0447 483632.6446 20111.7130 -5263.0447
ENERGY: 800 206.5085 626.7418 1860.5141 29.5555 -216819.9293 20320.9359 0.0000 0.0000 0.0000 -193775.6735 0.0000 -193775.6735 -193775.6735 0.0000 21082.9501 -4888.4618 483632.6446 21082.9501 -4888.4618
ENERGY: 1200 213.4995 626.4501 1861.1925 31.1376 -218989.0840 21381.5376 0.0000 0.0000 0.0000 -194875.2667 0.0000 -194875.2667 -194875.2667 0.0000 21744.3500 -4531.4976 483632.6446 21744.3500 -4531.4976
ENERGY: 1600 202.6058 621.3135 1859.3867 28.2294 -219965.9240 21931.4145 0.0000 0.0000 0.0000 -195322.9742 0.0000 -195322.9742 -195322.9742 0.0000 22097.0696 -4308.2427 483632.6446 22097.0696 -4308.2427
ENERGY: 2000 202.4792 619.9990 1861.2650 28.1855 -220539.1202 22133.0249 0.0000 0.0000 0.0000 -195694.1666 0.0000 -195694.1666 -195694.1666 0.0000 22210.7332 -4270.9774 483632.6446 22210.7332 -4270.9774
TCL: Running for 50000 steps
ETITLE: TS BOND ANGLE DIHED IMPRP ELECT VDW BOUNDARY MISC KINETIC TOTAL TEMP POTENTIAL TOTAL3 TEMPAVG PRESSURE GPRESSURE VOLUME PRESSAVG GPRESSAVG
ENERGY: 2000 202.4792 619.9990 1861.2650 28.1855 -220539.1202 22133.0249 0.0000 0.0000 30016.4261 -165677.7405 300.3898 -195694.1666 -165694.8800 300.3898 -2840.3459 -2808.4309 483632.6446 -2840.3459 -2808.4309
ENERGY: 12000 673.3429 2006.1424 2153.7241 126.0432 -176776.7630 14887.6594 0.0000 0.0000 29648.5683 -127281.2827 296.7085 -156929.8510 -127196.8504 296.6620 -28.2739 2.7887 483792.9483 -1.4056 -1.4888
ENERGY: 22000 699.1699 1980.6487 2118.8341 132.4471 -177067.5514 15186.9799 0.0000 0.0000 29648.7843 -127300.6875 296.7107 -156949.4718 -127215.2669 296.7064 137.5279 170.7282 482942.2519 9.3056 9.6073
ENERGY: 32000 733.2950 1939.5755 2131.2838 132.3006 -176584.8482 14870.3438 0.0000 0.0000 29708.3048 -127069.7447 297.3063 -156778.0495 -126991.3235 297.6426 -138.8242 -112.3616 483786.9575 6.4515 6.2857
ENERGY: 42000 721.0816 2009.6413 2135.8075 124.5825 -176790.8237 14880.0917 0.0000 0.0000 29685.7069 -127233.9122 297.0802 -156919.6191 -127152.4055 297.2803 -109.4922 -79.9088 484055.7802 10.2442 10.0891
ENERGY: 52000 672.1889 1991.7532 2114.2237 123.1905 -176864.4048 14953.2463 0.0000 0.0000 29599.7109 -127410.0914 296.2196 -157009.8022 -127316.2277 297.1186 -33.1675 -5.0390 482107.9032 17.1504 17.0232
