Info: SIMULATION PARAMETERS:
Info: TIMESTEP               2
Info: NUMBER OF STEPS        0
Info: STEPS PER CYCLE        10
Info: PERIODIC CELL BASIS 1  34.562 0 0
Info: PERIODIC CELL BASIS 2  0 124.075 0
Info: PERIODIC CELL BASIS 3  0 0 124.217
Info: PERIODIC CELL CENTER   -45.319 19.474 257.743
Info: FIRST LDB TIMESTEP     50
Info: LAST LDB TIMESTEP     -1
Info: HOM BACKGROUND SCALING 1
Info: MIN ATOMS PER PATCH    40
Info: INITIAL TEMPERATURE    298
Info: CENTER OF MASS MOVING INITIALLY? NO
Info: DIELECTRIC             1
Info: EXCLUDE                SCALED ONE-FOUR
Info: 1-4 ELECTROSTATICS SCALED BY 1
Info: MODIFIED 1-4 VDW PARAMETERS WILL BE USED
Info: DCD FILENAME           dimer_1.dcd
Info: DCD FREQUENCY          50
Info: DCD FIRST STEP         50
Info: DCD FILE WILL CONTAIN UNIT CELL DATA
Info: XST FILENAME           dimer_1.xst
Info: XST FREQUENCY          500
Info: NO VELOCITY DCD OUTPUT
Info: NO FORCE DCD OUTPUT
Info: OUTPUT FILENAME        dimer_1
Info: BINARY OUTPUT FILES WILL BE USED
Info: RESTART FILENAME       dimer_1.restart
Info: RESTART FREQUENCY      500
Info: BINARY RESTART FILES WILL BE USED
Info: SWITCHING ACTIVE
Info: SWITCHING ON           10
Info: SWITCHING OFF          12
Info: PAIRLIST DISTANCE      14
Info: PAIRLIST SHRINK RATE   0.01
Info: PAIRLIST GROW RATE     0.01
Info: PAIRLIST TRIGGER       0.3
Info: PAIRLISTS PER CYCLE    2
Info: PAIRLISTS ENABLED
Info: MARGIN                 0
Info: HYDROGEN GROUP CUTOFF  2.5
Info: PATCH DIMENSION        16.5
Info: ENERGY OUTPUT STEPS    100
Info: CROSSTERM ENERGY INCLUDED IN DIHEDRAL
Info: TIMING OUTPUT STEPS    1000
Info: PRESSURE OUTPUT STEPS  100
Info: USING VERLET I (r-RESPA) MTS SCHEME.
Info: C1 SPLITTING OF LONG RANGE ELECTROSTATICS
Info: PLACING ATOMS IN PATCHES BY HYDROGEN GROUPS
Info: RIGID BONDS TO HYDROGEN : ALL
Info:         ERROR TOLERANCE : 1e-08
Info:          MAX ITERATIONS : 100
Info: RIGID WATER USING SETTLE ALGORITHM
Info: RANDOM NUMBER SEED     1598342538
Info: USE HYDROGEN BONDS?    NO
Info: COORDINATE PDB         P:/Documents/MD/eq/dimer_solvate.pdb
Info: STRUCTURE FILE         P:/Documents/MD/eq/dimer_solvate.psf
Info: PARAMETER file: CHARMM format!
Info: PARAMETERS             P:/Documents/MD/par_all27_prot_lipid_na.inp
Info: PARAMETERS             P:/Documents/MD/par_all36_prot.prm
Info: PARAMETERS             P:/Documents/MD/par_all36_carb.prm
Info: PARAMETERS             P:/Documents/MD/par_all36_na.prm
Info: PARAMETERS             P:/Documents/MD/par_all36_cgenff.prm
Info: PARAMETERS             P:/Documents/MD/toppar_water_ions_namd.str
Info: PARAMETERS             P:/Documents/MD/toppar_all36_carb_glycopeptide.str
Info: USING ARITHMETIC MEAN TO COMBINE L-J SIGMA PARAMETERS
Info: SKIPPING rtf SECTION IN STREAM FILE
Info: SKIPPING rtf SECTION IN STREAM FILE
Info: SUMMARY OF PARAMETERS:
Info: 1174 BONDS
Info: 3322 ANGLES
Info: 7650 DIHEDRAL
Info: 270 IMPROPER
Info: 12 CROSSTERM
Info: 511 VDW
Info: 6 VDW_PAIRS
Info: 0 NBTHOLE_PAIRS
Info:
Info: STRUCTURE SUMMARY:
Info: 49401 ATOMS
Info: 34134 BONDS
Info: 21744 ANGLES
Info: 9441 DIHEDRALS
Info: 654 IMPROPERS
Info: 211 CROSSTERMS
Info: 0 EXCLUSIONS
Info: 47634 RIGID BONDS
Info: 100566 DEGREES OF FREEDOM
Info: 17051 HYDROGEN GROUPS
Info: 4 ATOMS IN LARGEST HYDROGEN GROUP
Info: 17051 MIGRATION GROUPS
Info: 4 ATOMS IN LARGEST MIGRATION GROUP
Info: TOTAL MASS = 300430 amu
Info: TOTAL CHARGE = -12 e
Info: MASS DENSITY = 0.936565 g/cm^3
Info: ATOM DENSITY = 0.092741 atoms/A^3
Info:
Info: ADDED 65248 IMPLICIT EXCLUSIONS
Info: NONBONDED TABLE R-SQUARED SPACING: 0.0625
Info: NONBONDED TABLE SIZE: 769 POINTS
Info: REMOVING COM VELOCITY 0.0552633 -0.0464685 -0.0164231
TCL: Minimizing for 6000 steps
ETITLE: TS BOND ANGLE DIHED IMPRP ELECT VDW BOUNDARY MISC KINETIC TOTAL TEMP POTENTIAL TOTAL3 TEMPAVG PRESSURE GPRESSURE VOLUME PRESSAVG GPRESSAVG
ENERGY: 0 344.1973 709.6599 1905.5531 26.6218 -153946.6645 15482822.5149 0.0000 0.0000 0.0000 15331861.8825 0.0000 15331861.8825 15331861.8825 0.0000 8091597.4511 14605186.2040 532677.2954 8091597.4511 14605186.2040
ENERGY: 1200 302.2028 732.1878 1867.6931 34.6898 -219352.4634 20570.8874 0.0000 0.0000 0.0000 -195844.8026 0.0000 -195844.8026 -195844.8026 0.0000 18729.7990 -5054.3456 532677.2954 18729.7990 -5054.3456
ENERGY: 2400 229.8555 686.5250 1881.4789 33.4237 -224399.3345 22268.5714 0.0000 0.0000 0.0000 -199299.4800 0.0000 -199299.4800 -199299.4800 0.0000 19732.5346 -4638.8853 532677.2954 19732.5346 -4638.8853
ENERGY: 3600 229.5689 680.0535 1879.6472 32.9533 -226155.3099 22925.3801 0.0000 0.0000 0.0000 -200407.7069 0.0000 -200407.7069 -200407.7069 0.0000 20099.3976 -4472.7044 532677.2954 20099.3976 -4472.7044
ENERGY: 4800 227.4508 680.8878 1876.2038 33.4430 -226890.3515 23178.8819 0.0000 0.0000 0.0000 -200893.4841 0.0000 -200893.4841 -200893.4841 0.0000 20271.0770 -4387.4654 532677.2954 20271.0770 -4387.4654
ENERGY: 6000 226.3739 680.8671 1879.9093 32.8542 -227265.4356 23319.7853 0.0000 0.0000 0.0000 -201125.6458 0.0000 -201125.6458 -201125.6458 0.0000 20394.1023 -4308.9124 532677.2954 20394.1023 -4308.9124
TCL: Running for 0 steps
ETITLE: TS BOND ANGLE DIHED IMPRP ELECT VDW BOUNDARY MISC KINETIC TOTAL TEMP POTENTIAL TOTAL3 TEMPAVG PRESSURE GPRESSURE VOLUME PRESSAVG GPRESSAVG
ENERGY: 6000 226.3739 680.8671 1879.9093 32.8542 -227265.4356 23319.7853 0.0000 0.0000 29699.4963 -171426.1495 297.2270 -201125.6458 -171442.2632 297.2270 -2990.6070 -2988.8708 532677.2954 -2990.6070 -2988.8708
