Info: SIMULATION PARAMETERS:
Info: TIMESTEP               2
Info: NUMBER OF STEPS        0
Info: STEPS PER CYCLE        10
Info: PERIODIC CELL BASIS 1  34.562 0 0
Info: PERIODIC CELL BASIS 2  0 124.075 0
Info: PERIODIC CELL BASIS 3  0 0 124.217
Info: PERIODIC CELL CENTER   -45.319 19.474 257.743
Info: FIRST LDB TIMESTEP     50
Info: LAST LDB TIMESTEP     -1
Info: HOM BACKGROUND SCALING 1
Info: PME BACKGROUND SCALING 1
Info: MIN ATOMS PER PATCH    40
Info: VELOCITY FILE          dimer_1.restart.vel
Info: CENTER OF MASS MOVING INITIALLY? NO
Info: DIELECTRIC             1
Info: EXCLUDE                SCALED ONE-FOUR
Info: 1-4 ELECTROSTATICS SCALED BY 1
Info: MODIFIED 1-4 VDW PARAMETERS WILL BE USED
Info: DCD FILENAME           dimer_2.dcd
Info: DCD FREQUENCY          500
Info: DCD FIRST STEP         500
Info: DCD FILE WILL CONTAIN UNIT CELL DATA
Info: XST FILENAME           dimer_2.xst
Info: XST FREQUENCY          500
Info: NO VELOCITY DCD OUTPUT
Info: NO FORCE DCD OUTPUT
Info: OUTPUT FILENAME        dimer_2
Info: BINARY OUTPUT FILES WILL BE USED
Info: RESTART FILENAME       dimer_2.restart
Info: RESTART FREQUENCY      500
Info: BINARY RESTART FILES WILL BE USED
Info: SWITCHING ACTIVE
Info: SWITCHING ON           10
Info: SWITCHING OFF          12
Info: PAIRLIST DISTANCE      14
Info: PAIRLIST SHRINK RATE   0.01
Info: PAIRLIST GROW RATE     0.01
Info: PAIRLIST TRIGGER       0.3
Info: PAIRLISTS PER CYCLE    2
Info: PAIRLISTS ENABLED
Info: MARGIN                 0.495
Info: HYDROGEN GROUP CUTOFF  2.5
Info: PATCH DIMENSION        16.995
Info: ENERGY OUTPUT STEPS    100
Info: CROSSTERM ENERGY INCLUDED IN DIHEDRAL
Info: TIMING OUTPUT STEPS    1000
Info: PRESSURE OUTPUT STEPS  100
Info: FIXED ATOMS ACTIVE
Info: LANGEVIN DYNAMICS ACTIVE
Info: LANGEVIN TEMPERATURE   298
Info: LANGEVIN USING BBK INTEGRATOR
Info: LANGEVIN DAMPING COEFFICIENT IS 1 INVERSE PS
Info: LANGEVIN DYNAMICS NOT APPLIED TO HYDROGENS
Info: LANGEVIN PISTON PRESSURE CONTROL ACTIVE
Info:        TARGET PRESSURE IS 1.01325 BAR
Info:     OSCILLATION PERIOD IS 100 FS
Info:             DECAY TIME IS 50 FS
Info:     PISTON TEMPERATURE IS 298 K
Info:       PRESSURE CONTROL IS GROUP-BASED
Info:    INITIAL STRAIN RATE IS 0 0 0
Info:       CELL FLUCTUATION IS ISOTROPIC
Info: PARTICLE MESH EWALD (PME) ACTIVE
Info: PME TOLERANCE               1e-06
Info: PME EWALD COEFFICIENT       0.257952
Info: PME INTERPOLATION ORDER     4
Info: PME GRID DIMENSIONS         36 128 128
Info: PME MAXIMUM GRID SPACING    1
Info: FULL ELECTROSTATIC EVALUATION FREQUENCY      2
Info: USING VERLET I (r-RESPA) MTS SCHEME.
Info: C1 SPLITTING OF LONG RANGE ELECTROSTATICS
Info: PLACING ATOMS IN PATCHES BY HYDROGEN GROUPS
Info: RIGID BONDS TO HYDROGEN : ALL
Info:         ERROR TOLERANCE : 1e-08
Info:          MAX ITERATIONS : 100
Info: RIGID WATER USING SETTLE ALGORITHM
Info: RANDOM NUMBER SEED     1598352759
Info: USE HYDROGEN BONDS?    NO
Info: COORDINATE PDB         P:/Documents/MD/eq/dimer_solvate.pdb
Info: STRUCTURE FILE         P:/Documents/MD/eq/dimer_solvate.psf
Info: PARAMETER file: CHARMM format!
Info: PARAMETERS             P:/Documents/MD/par_all27_prot_lipid_na.inp
Info: PARAMETERS             P:/Documents/MD/par_all36_prot.prm
Info: PARAMETERS             P:/Documents/MD/par_all36_carb.prm
Info: PARAMETERS             P:/Documents/MD/par_all36_na.prm
Info: PARAMETERS             P:/Documents/MD/par_all36_cgenff.prm
Info: PARAMETERS             P:/Documents/MD/toppar_water_ions_namd.str
Info: PARAMETERS             P:/Documents/MD/toppar_all36_carb_glycopeptide.str
Info: USING ARITHMETIC MEAN TO COMBINE L-J SIGMA PARAMETERS
Info: BINARY COORDINATES     dimer_1.restart.coor
Info: SKIPPING rtf SECTION IN STREAM FILE
Info: SKIPPING rtf SECTION IN STREAM FILE
Info: SUMMARY OF PARAMETERS:
Info: 1174 BONDS
Info: 3322 ANGLES
Info: 7650 DIHEDRAL
Info: 270 IMPROPER
Info: 12 CROSSTERM
Info: 511 VDW
Info: 6 VDW_PAIRS
Info: 0 NBTHOLE_PAIRS
Info:
Info: STRUCTURE SUMMARY:
Info: 49401 ATOMS
Info: 34134 BONDS
Info: 21744 ANGLES
Info: 9441 DIHEDRALS
Info: 654 IMPROPERS
Info: 211 CROSSTERMS
Info: 0 EXCLUSIONS
Info: 3549 FIXED ATOMS
Info: 47634 RIGID BONDS
Info: 1782 RIGID BONDS BETWEEN FIXED ATOMS
Info: 91704 DEGREES OF FREEDOM
Info: 17051 HYDROGEN GROUPS
Info: 4 ATOMS IN LARGEST HYDROGEN GROUP
Info: 17051 MIGRATION GROUPS
Info: 4 ATOMS IN LARGEST MIGRATION GROUP
Info: 1767 HYDROGEN GROUPS WITH ALL ATOMS FIXED
Info: TOTAL MASS = 300430 amu
Info: TOTAL CHARGE = -12 e
Info: MASS DENSITY = 0.936565 g/cm^3
Info: ATOM DENSITY = 0.092741 atoms/A^3
Info:
Info: ADDED 65248 IMPLICIT EXCLUSIONS
Info: NONBONDED TABLE R-SQUARED SPACING: 0.0625
Info: NONBONDED TABLE SIZE: 769 POINTS
Info: REMOVING COM VELOCITY 0 0 0
TCL: Running for 50000 steps
ETITLE: TS BOND ANGLE DIHED IMPRP ELECT VDW BOUNDARY MISC KINETIC TOTAL TEMP POTENTIAL TOTAL3 TEMPAVG PRESSURE GPRESSURE VOLUME PRESSAVG GPRESSAVG
ENERGY: 0 0.0000 0.0000 0.0000 0.0000 -227960.5037 24132.4700 0.0000 0.0000 0.0000 -203828.0337 0.0000 -203828.0337 -203824.8520 0.0000 -3980.4320 -4010.5204 532677.2954 -3980.4320 -4010.5204
ENERGY: 10000 0.0000 0.0000 0.0000 0.0000 -187875.2414 15881.9710 0.0000 0.0000 26953.2134 -145040.0570 295.8099 -171993.2704 -144987.7855 295.5342 216.9599 248.9366 482700.3404 0.5554 0.1565
ENERGY: 20000 0.0000 0.0000 0.0000 0.0000 -186454.1387 15168.7049 0.0000 0.0000 27131.8930 -144153.5408 297.7709 -171285.4338 -144095.0462 298.8361 -138.7169 -104.5089 482966.6810 6.5146 6.2471
ENERGY: 30000 0.0000 0.0000 0.0000 0.0000 -186986.5927 15527.1616 0.0000 0.0000 27139.4298 -144320.0013 297.8536 -171459.4311 -144267.8705 297.3895 97.6989 125.7285 483936.7495 4.0786 4.1341
ENERGY: 40000 0.0000 0.0000 0.0000 0.0000 -187242.0532 15740.1795 0.0000 0.0000 27324.8860 -144176.9878 299.8889 -171501.8738 -144119.1503 299.3369 290.4767 324.2598 484102.8252 0.8054 0.7814
ENERGY: 50000 0.0000 0.0000 0.0000 0.0000 -186945.9183 15487.6648 0.0000 0.0000 27034.1973 -144424.0562 296.6987 -171458.2535 -144363.6501 297.2840 -180.7049 -150.0019 483632.6446 9.2956 9.1635
