Info: SIMULATION PARAMETERS:
Info: TIMESTEP               1
Info: NUMBER OF STEPS        0
Info: STEPS PER CYCLE        20
Info: PERIODIC CELL BASIS 1  34.562 0 0
Info: PERIODIC CELL BASIS 2  0 124.075 0
Info: PERIODIC CELL BASIS 3  0 0 124.217
Info: PERIODIC CELL CENTER   -45.308 19.438 257.745
Info: WRAPPING ALL CLUSTERS AROUND PERIODIC BOUNDARIES ON OUTPUT.
Info: FIRST LDB TIMESTEP     100
Info: LAST LDB TIMESTEP     -1
Info: HOM BACKGROUND SCALING 1
Info: PME BACKGROUND SCALING 1
Info: MIN ATOMS PER PATCH    40
Info: INITIAL TEMPERATURE    298
Info: CENTER OF MASS MOVING INITIALLY? NO
Info: DIELECTRIC             1
Info: EXCLUDE                SCALED ONE-FOUR
Info: 1-4 ELECTROSTATICS SCALED BY 1
Info: MODIFIED 1-4 VDW PARAMETERS WILL BE USED
Info: DCD FILENAME           /Users/shaozhihao/Desktop/IGEM/MD/dimer/minimization/dimer_solvate.dcd
Info: DCD FREQUENCY          50
Info: DCD FIRST STEP         50
Info: DCD FILE WILL CONTAIN UNIT CELL DATA
Info: XST FILENAME           /Users/shaozhihao/Desktop/IGEM/MD/dimer/minimization/dimer_solvate.xst
Info: XST FREQUENCY          50
Info: NO VELOCITY DCD OUTPUT
Info: NO FORCE DCD OUTPUT
Info: OUTPUT FILENAME        /Users/shaozhihao/Desktop/IGEM/MD/dimer/minimization/dimer_solvate
Info: RESTART FILENAME       /Users/shaozhihao/Desktop/IGEM/MD/dimer/minimization/dimer_solvate.restart
Info: RESTART FREQUENCY      1000
Info: SWITCHING ACTIVE
Info: SWITCHING ON           9
Info: SWITCHING OFF          10
Info: PAIRLIST DISTANCE      12
Info: PAIRLIST SHRINK RATE   0.01
Info: PAIRLIST GROW RATE     0.01
Info: PAIRLIST TRIGGER       0.3
Info: PAIRLISTS PER CYCLE    2
Info: PAIRLISTS ENABLED
Info: MARGIN                 0
Info: HYDROGEN GROUP CUTOFF  2.5
Info: PATCH DIMENSION        14.5
Info: ENERGY OUTPUT STEPS    100
Info: CROSSTERM ENERGY INCLUDED IN DIHEDRAL
Info: TIMING OUTPUT STEPS    1000
Info: LANGEVIN DYNAMICS ACTIVE
Info: LANGEVIN TEMPERATURE   298
Info: LANGEVIN USING BBK INTEGRATOR
Info: LANGEVIN DAMPING COEFFICIENT IS 1 INVERSE PS
Info: LANGEVIN DYNAMICS NOT APPLIED TO HYDROGENS
Info: PARTICLE MESH EWALD (PME) ACTIVE
Info: PME TOLERANCE               1e-06
Info: PME EWALD COEFFICIENT       0.312341
Info: PME INTERPOLATION ORDER     4
Info: PME GRID DIMENSIONS         32 125 125
Info: PME MAXIMUM GRID SPACING    1.5
Info: FULL ELECTROSTATIC EVALUATION FREQUENCY      4
Info: USING VERLET I (r-RESPA) MTS SCHEME.
Info: C1 SPLITTING OF LONG RANGE ELECTROSTATICS
Info: PLACING ATOMS IN PATCHES BY HYDROGEN GROUPS
Info: NONBONDED FORCES EVALUATED EVERY 2 STEPS
Info: RANDOM NUMBER SEED     12345
Info: USE HYDROGEN BONDS?    NO
Info: COORDINATE PDB         /Users/shaozhihao/Desktop/IGEM/MD/dimer/minimization/dimer_solvate.pdb
Info: STRUCTURE FILE         /Users/shaozhihao/Desktop/IGEM/MD/dimer/minimization/dimer_solvate.psf
Info: PARAMETER file: CHARMM format!
Info: PARAMETERS             /Users/shaozhihao/Desktop/IGEM/MD/VMD 1.9.4a43-Catalina-Rev6.app/Contents/vmd/plugins/noarch/tcl/readcharmmpar1.5/par_all36_prot.prm
Info: PARAMETERS             /Users/shaozhihao/Desktop/IGEM/MD/VMD 1.9.4a43-Catalina-Rev6.app/Contents/vmd/plugins/noarch/tcl/readcharmmpar1.5/par_all36_na.prm
Info: PARAMETERS             /Users/shaozhihao/Desktop/IGEM/MD/VMD 1.9.4a43-Catalina-Rev6.app/Contents/vmd/plugins/noarch/tcl/readcharmmpar1.5/par_all36_lipid.prm
Info: PARAMETERS             /Users/shaozhihao/Desktop/IGEM/MD/VMD 1.9.4a43-Catalina-Rev6.app/Contents/vmd/plugins/noarch/tcl/readcharmmpar1.5/par_all36_carb.prm
Info: PARAMETERS             /Users/shaozhihao/Desktop/IGEM/MD/VMD 1.9.4a43-Catalina-Rev6.app/Contents/vmd/plugins/noarch/tcl/readcharmmpar1.5/par_all36_cgenff.prm
Info: PARAMETERS             /Users/shaozhihao/Desktop/IGEM/MD/VMD 1.9.4a43-Catalina-Rev6.app/Contents/vmd/plugins/noarch/tcl/readcharmmpar1.5/toppar_water_ions_namd.str
Info: USING ARITHMETIC MEAN TO COMBINE L-J SIGMA PARAMETERS
Info: SKIPPING rtf SECTION IN STREAM FILE
Info: SUMMARY OF PARAMETERS:
Info: 911 BONDS
Info: 2652 ANGLES
Info: 6440 DIHEDRAL
Info: 189 IMPROPER
Info: 6 CROSSTERM
Info: 350 VDW
Info: 6 VDW_PAIRS
Info: 0 NBTHOLE_PAIRS
Info: STRUCTURE SUMMARY:
Info: 49401 ATOMS
Info: 34134 BONDS
Info: 21744 ANGLES
Info: 9441 DIHEDRALS
Info: 654 IMPROPERS
Info: 211 CROSSTERMS
Info: 0 EXCLUSIONS
Info: 148203 DEGREES OF FREEDOM
Info: 17051 HYDROGEN GROUPS
Info: 4 ATOMS IN LARGEST HYDROGEN GROUP
Info: 17051 MIGRATION GROUPS
Info: 4 ATOMS IN LARGEST MIGRATION GROUP
Info: TOTAL MASS = 300430 amu
Info: TOTAL CHARGE = -12 e
Info: MASS DENSITY = 0.936565 g/cm^3
Info: ATOM DENSITY = 0.092741 atoms/A^3
Info: ADDED 65248 IMPLICIT EXCLUSIONS
Info: NONBONDED TABLE R-SQUARED SPACING: 0.0625
Info: NONBONDED TABLE SIZE: 705 POINTS
Info: REMOVING COM VELOCITY 0.00796908 0.0116231 0.0342356
TCL: Minimizing for 1000 steps
ETITLE: TS BOND ANGLE DIHED IMPRP ELECT VDW BOUNDARY MISC KINETIC TOTAL TEMP POTENTIAL TOTAL3 TEMPAVG PRESSURE GPRESSURE VOLUME PRESSAVG GPRESSAVG
ENERGY: 0 14452.5407 3986.8002 1905.3306 26.6013 -159713.2131 41639367.2553 0.0000 0.0000 0.0000 41500025.3150 0.0000 41500025.3150 41500025.3150 0.0000 21722812.8994 45613593.0747 532677.2954 21722812.8994 45613593.0747
ENERGY: 200 5651.0717 4568.8550 1873.8307 46.7471 -203153.9762 13343.4840 0.0000 0.0000 0.0000 -177669.9876 0.0000 -177669.9876 -177669.9876 0.0000 -8197.9302 -29676.7908 532677.2954 -8197.9302 -29676.7908
ENERGY: 400 6505.2057 4967.3486 1876.4465 34.0317 -222530.1006 20910.7812 0.0000 0.0000 0.0000 -188236.2869 0.0000 -188236.2869 -188236.2869 0.0000 -6354.2729 -30027.7427 532677.2954 -6354.2729 -30027.7427
ENERGY: 600 6801.4368 5135.5344 1874.1103 33.6180 -230340.0117 23144.2001 0.0000 0.0000 0.0000 -193351.1121 0.0000 -193351.1121 -193351.1121 0.0000 -5940.5479 -30590.8519 532677.2954 -5940.5479 -30590.8519
ENERGY: 800 7067.5334 5229.0356 1860.9846 30.7451 -235898.1035 25201.4917 0.0000 0.0000 0.0000 -196508.3130 0.0000 -196508.3130 -196508.3130 0.0000 -5398.1802 -30659.8843 532677.2954 -5398.1802 -30659.8843
ENERGY: 1000 7113.0207 5181.0120 1862.3749 30.2283 -237771.7953 25596.0201 0.0000 0.0000 0.0000 -197989.1393 0.0000 -197989.1393 -197989.1393 0.0000 -5409.5824 -30927.3623 532677.2954 -5409.5824 -30927.3623
TCL: Running for 5000 steps
ETITLE: TS BOND ANGLE DIHED IMPRP ELECT VDW BOUNDARY MISC KINETIC TOTAL TEMP POTENTIAL TOTAL3 TEMPAVG PRESSURE GPRESSURE VOLUME PRESSAVG GPRESSAVG
ENERGY: 1000 7113.0207 5181.0120 1862.3749 30.2283 -237771.7953 25596.0201 0.0000 0.0000 43687.6258 -154301.5135 296.6824 -197989.1393 -155140.1653 296.6824 -1536.5979 -4067.1687 532677.2954 -1536.5979 -4067.1687
ENERGY: 2000 11170.6737 7971.7801 2100.2113 115.4138 -216286.2058 23396.8228 0.0000 0.0000 28210.9734 -143320.3307 191.5806 -171531.3041 -142779.7821 190.0651 -404.6678 -2364.3854 532677.2954 -2305.1249 -2306.5605
ENERGY: 3000 10894.7483 8327.5183 2111.9681 109.3866 -213007.8811 22971.2866 0.0000 0.0000 31393.3052 -137199.6682 213.1918 -168592.9734 -136720.3216 212.0234 1366.9226 -1992.3669 532677.2954 -2062.5832 -2060.7065
ENERGY: 4000 11084.5021 8830.7088 2119.4038 121.7056 -210250.0024 22356.7130 0.0000 0.0000 33387.4769 -132349.4922 226.7342 -165736.9690 -131856.1094 226.0251 1700.5239 -1884.7545 532677.2954 -1954.2386 -1953.7420
ENERGY: 5000 11558.4142 8973.3494 2129.6849 109.3995 -208346.3915 21983.4843 0.0000 0.0000 35038.3343 -128553.7248 237.9451 -163592.0592 -128032.0571 237.2989 1181.2468 -1830.9674 532677.2954 -1783.2633 -1782.5732
ENERGY: 6000 11843.1548 9265.3767 2126.5329 118.5297 -206339.0713 21474.1543 0.0000 0.0000 36241.8226 -125269.5003 246.1180 -161511.3230 -124728.5269 245.1828 1067.7413 -1832.4503 532677.2954 -1766.5816 -1767.1334
